6
2Body=17.048714  BindingEnergy=2.618693
O        0.066326334     0.000000000     0.003700178
H       -0.526323560    -0.769239546    -0.029362258
H       -0.526323560     0.769239546    -0.029362258
O       -0.066313985     0.000000000     2.381300836
H        0.480887497    -0.000000000     3.184187528
H        0.571563626    -0.000000000     1.648382932
6
2Body=8.955474  BindingEnergy=-2.632483
O        0.066346596     0.000000000     0.003317095
H       -0.526484345    -0.769239546    -0.026322353
H       -0.526484345     0.769239546    -0.026322353
O       -0.065773325     0.000000000     2.645902637
H        0.629785117    -0.000000000     3.324323565
H        0.414085344    -0.000000000     1.801040424
6
2Body=3.781765  BindingEnergy=-3.782930
O        0.066362386     0.000000000     0.002984578
H       -0.526609640    -0.769239546    -0.023683713
H       -0.526609640     0.769239546    -0.023683713
O       -0.064400972     0.000000000     2.910520459
H        0.699688742    -0.000000011     3.510706606
H        0.322401468     0.000000011     2.019206612
6
2Body=1.340657  BindingEnergy=-3.331632
O        0.066373740     0.000000000     0.002720403
H       -0.526699740    -0.769239546    -0.021587390
H       -0.526699740     0.769239546    -0.021587390
O       -0.063650694     0.000000000     3.175120413
H        0.725248549     0.000000011     3.742301588
H        0.284934213    -0.000000011     2.268177712
6
2Body=0.058819  BindingEnergy=-1.798527
O        0.066388692     0.000000000     0.002327124
H       -0.526818391    -0.769239546    -0.018466578
H       -0.526818391     0.769239546    -0.018466578
O       -0.063376451    -0.000000001     3.704294231
H        0.272393056     0.000000015     2.792529273
H        0.733437266    -0.000000001     4.260301788
6
2Body=-0.049528  BindingEnergy=-0.798827
O        0.066398098     0.000000000     0.002041228
H       -0.526893025    -0.769239546    -0.016197888
H       -0.526893025     0.769239546    -0.016197888
O       -0.063685332     0.000000001     4.233460163
H        0.724176095    -0.000000011     4.802082070
H        0.286556391    -0.000000004     3.327155999
6
2Body=-0.031538  BindingEnergy=-0.270619
O        0.066404520     0.000000000     0.001820368
H       -0.526943987    -0.769239546    -0.014445282
H       -0.526943987     0.769239546    -0.014445282
O       -0.064104979     0.000000000     4.762627097
H        0.710406089    -0.000000000     5.349303420
H        0.306986503    -0.000000000     3.864658493
6
2Body=-0.007537  BindingEnergy=0.170439
O        0.066412581     0.000000000     0.001497672
H       -0.527007959    -0.769239546    -0.011884571
H       -0.527007959     0.769239546    -0.011884571
O       -0.064822450     0.000000000     5.820967859
H        0.682565581    -0.000000011     6.441828255
H        0.346213804     0.000000011     4.940566985
6
2Body=19.529529  BindingEnergy=1.591219
O        0.066346264     0.000000000     0.003323728
H       -0.564964291     0.013005143     0.741791296
H       -0.487999130    -0.013005143    -0.794541268
O       -0.052782397     0.040259390     2.381298897
H        0.031578915    -0.799032984     2.863510450
H        0.806116073     0.160087215     1.943130879
6
2Body=7.281097  BindingEnergy=-2.811990
O        0.066360633     0.000000000     0.003023299
H       -0.561601239     0.011133718     0.744371009
H       -0.491590225    -0.011133718    -0.792352953
O       -0.054044760     0.038295679     2.645891057
H        0.053329299    -0.770206599     3.173954859
H        0.804400315     0.162426345     2.208032482
6
2Body=2.651360  BindingEnergy=-3.354081
O        0.066371376     0.000000000     0.002777479
H       -0.558841195     0.009447550     0.746468602
H       -0.494520769    -0.009447550    -0.790549217
O       -0.055309175     0.035745508     2.910487929
H        0.070124753    -0.730912395     3.494061824
H        0.807672043     0.163605213     2.482735881
6
2Body=0.966716  BindingEnergy=-2.761906
O        0.066379814     0.000000000     0.002567931
H       -0.556482471     0.007925627     0.748246320
H       -0.497013406    -0.007925627    -0.789001249
O       -0.056350523     0.032713306     3.175089849
H        0.081291425    -0.680240003     3.820697140
H        0.813032324     0.161056073     2.760652760
